# Packages
 &PACKAGES
#
 useEXF         = .FALSE.,
 useCAL         = .TRUE.,
 usePTRACERS    = .FALSE.,
 useGMRedi      = .FALSE.,
 useGGL90       = .TRUE.,
 useSALT_PlUME  = .TRUE.,
 useECCO        = .TRUE.,
#
 useCTRL        = .TRUE.,
 useOBCS        = .FALSE.,
 useDiagnostics = .FALSE.,
 useSeaice      = .FALSE.,
 useShelfIce    = .FALSE.,
#useFrazil      = .FALSE.,
 usePROFILES    = .FALSE.,
 useSMOOTH      = .FALSE.,
 /
  
