# Packages
 &PACKAGES
#
 useEXF         = .TRUE.,
 useCAL         = .TRUE.,
 usePTRACERS    = .FALSE.,
 useGMRedi      = .TRUE.,
 useGGL90       = .TRUE.,
 useSALT_PlUME  = .TRUE.,
 useECCO        = .FALSE.,
#
 useCTRL        = .FALSE.,
 useOBCS        = .FALSE.,
 useDiagnostics = .TRUE.,
 useSeaice      = .TRUE.,
 useShelfIce    = .FALSE.,
#useFrazil      = .FALSE.,
 usePROFILES    = .FALSE.,
#useSMOOTH      = .FALSE.,
 /
  
